ligand0001
                    3D
 Schrodinger Suite 2021-1.
 52 55  0  0  1  0            999 V2000
   15.3086    7.8091   -9.3389 C   0  0  0  0  0  0
   14.2890    6.6627   -9.4296 C   0  0  0  0  0  0
   13.4469    6.5246   -8.1575 C   0  0  0  0  0  0
   12.9843    7.5304   -7.6167 O   0  0  0  0  0  0
   13.2308    5.2676   -7.7276 N   0  0  0  0  0  0
   12.5811    4.8549   -6.5332 C   0  0  0  0  0  0
   12.5242    5.6521   -5.3688 C   0  0  0  0  0  0
   11.9355    5.2491   -4.2258 N   0  0  0  0  0  0
   11.3828    4.0167   -4.1901 C   0  0  0  0  0  0
   11.3790    3.1300   -5.2893 C   0  0  0  0  0  0
   12.0076    3.5680   -6.4806 C   0  0  0  0  0  0
   10.7775    1.8454   -5.1959 N   0  0  0  0  0  0
    9.9036    1.3610   -4.2328 C   0  0  0  0  0  0
    9.5877    0.0792   -4.5932 C   0  0  0  0  0  0
   10.3352   -0.1651   -5.7774 C   0  0  0  0  0  0
   11.0304    0.9012   -6.1404 N   0  0  0  0  0  0
    8.7036   -0.8825   -3.9054 C   0  0  0  0  0  0
    7.3988   -0.5487   -3.4575 C   0  0  0  0  0  0
    6.8299    0.8468   -3.6390 C   0  0  0  0  0  0
    6.5951   -1.5280   -2.8340 C   0  0  0  0  0  0
    7.0833   -2.8309   -2.6232 C   0  0  0  0  0  0
    8.3939   -3.1700   -3.0245 C   0  0  0  0  0  0
    9.1787   -2.1967   -3.6815 C   0  0  0  0  0  0
    8.9958   -4.5011   -2.6644 C   0  0  0  0  0  0
   10.1808   -4.5802   -2.3401 O   0  0  0  0  0  0
    8.1805   -5.5621   -2.7447 N   0  0  0  0  0  0
    8.5388   -6.9365   -2.5332 C   0  0  0  0  0  0
    9.4354   -7.3886   -1.3981 C   0  0  0  0  0  0
    7.9476   -7.6331   -1.3331 C   0  0  0  0  0  0
   15.8838    7.8631  -10.2750 H   0  0  0  0  0  0
   15.9933    7.6251   -8.4979 H   0  0  0  0  0  0
   14.7784    8.7595   -9.1789 H   0  0  0  0  0  0
   13.6043    6.8467  -10.2706 H   0  0  0  0  0  0
   14.8191    5.7123   -9.5896 H   0  0  0  0  0  0
   13.5752    4.4137   -8.3294 H   0  0  0  0  0  0
   12.9788    6.6305   -5.3203 H   0  0  0  0  0  0
   10.9349    3.7415   -3.2472 H   0  0  0  0  0  0
   12.0425    2.9317   -7.3537 H   0  0  0  0  0  0
    9.5765    1.9467   -3.3875 H   0  0  0  0  0  0
   10.3869   -1.0610   -6.3804 H   0  0  0  0  0  0
    7.5752    1.4847   -4.1366 H   0  0  0  0  0  0
    6.5813    1.2722   -2.6555 H   0  0  0  0  0  0
    5.9210    0.7948   -4.2564 H   0  0  0  0  0  0
    5.6001   -1.2782   -2.4965 H   0  0  0  0  0  0
    6.4612   -3.5534   -2.1153 H   0  0  0  0  0  0
   10.1813   -2.4570   -3.9925 H   0  0  0  0  0  0
    7.1442   -5.2971   -3.0012 H   0  0  0  0  0  0
    8.5660   -7.0527   -3.6267 H   0  0  0  0  0  0
   10.1780   -8.1045   -1.7803 H   0  0  0  0  0  0
    9.9526   -6.5173   -0.9700 H   0  0  0  0  0  0
    7.2186   -6.9689   -0.8459 H   0  0  0  0  0  0
    7.4440   -8.5562   -1.6561 H   0  0  0  0  0  0
  1  2  1  0  0  0
  1 30  1  0  0  0
  1 31  1  0  0  0
  1 32  1  0  0  0
  2  3  1  0  0  0
  2 33  1  0  0  0
  2 34  1  0  0  0
  3  4  2  0  0  0
  3  5  1  0  0  0
  5  6  1  0  0  0
  5 35  1  0  0  0
  6  7  2  0  0  0
  6 11  1  0  0  0
  7  8  1  0  0  0
  7 36  1  0  0  0
  8  9  2  0  0  0
  9 10  1  0  0  0
  9 37  1  0  0  0
 10 11  2  0  0  0
 10 12  1  0  0  0
 11 38  1  0  0  0
 12 13  1  0  0  0
 12 16  1  0  0  0
 13 14  2  0  0  0
 13 39  1  0  0  0
 14 15  1  0  0  0
 14 17  1  0  0  0
 15 16  2  0  0  0
 15 40  1  0  0  0
 17 18  2  0  0  0
 17 23  1  0  0  0
 18 19  1  0  0  0
 18 20  1  0  0  0
 19 41  1  0  0  0
 19 42  1  0  0  0
 19 43  1  0  0  0
 20 21  2  0  0  0
 20 44  1  0  0  0
 21 22  1  0  0  0
 21 45  1  0  0  0
 22 23  2  0  0  0
 22 24  1  0  0  0
 23 46  1  0  0  0
 24 25  2  0  0  0
 24 26  1  0  0  0
 26 27  1  0  0  0
 26 47  1  0  0  0
 27 28  1  0  0  0
 27 29  1  0  0  0
 27 48  1  0  0  0
 28 29  1  0  0  0
 28 49  1  0  0  0
 28 50  1  0  0  0
 29 51  1  0  0  0
 29 52  1  0  0  0
M  END

$$$$
ligand0005
                    3D
 Schrodinger Suite 2021-1.
 43 46  0  0  1  0            999 V2000
   14.3811    7.8690   -7.7934 C   0  0  0  0  0  0
   13.4621    6.6739   -7.5638 C   0  0  0  0  0  0
   12.9282    6.1306   -8.5277 O   0  0  0  0  0  0
   13.2750    6.3116   -6.2842 N   0  0  0  0  0  0
   12.5503    5.2004   -5.8014 C   0  0  0  0  0  0
   12.2300    5.1295   -4.5060 N   0  0  0  0  0  0
   11.5569    3.9370   -4.2016 C   0  0  0  0  0  0
   11.3939    3.1096   -5.2886 C   0  0  0  0  0  0
   12.0612    3.7961   -6.7420 S   0  0  0  0  0  0
   10.7775    1.8454   -5.1959 N   0  0  0  0  0  0
    9.9036    1.3610   -4.2328 C   0  0  0  0  0  0
    9.5877    0.0792   -4.5932 C   0  0  0  0  0  0
   10.3352   -0.1651   -5.7774 C   0  0  0  0  0  0
   11.0304    0.9012   -6.1404 N   0  0  0  0  0  0
    8.7036   -0.8825   -3.9054 C   0  0  0  0  0  0
    7.3988   -0.5487   -3.4575 C   0  0  0  0  0  0
    6.7619    1.0489   -3.6501 Cl  0  0  0  0  0  0
    6.5951   -1.5280   -2.8340 C   0  0  0  0  0  0
    7.0833   -2.8309   -2.6232 C   0  0  0  0  0  0
    6.2942   -3.7270   -1.9831 F   0  0  0  0  0  0
    8.3939   -3.1700   -3.0245 C   0  0  0  0  0  0
    9.1787   -2.1967   -3.6815 C   0  0  0  0  0  0
    8.9958   -4.5011   -2.6644 C   0  0  0  0  0  0
   10.1808   -4.5802   -2.3401 O   0  0  0  0  0  0
    8.1805   -5.5621   -2.7447 N   0  0  0  0  0  0
    8.5388   -6.9365   -2.5332 C   0  0  0  0  0  0
    9.4354   -7.3886   -1.3981 C   0  0  0  0  0  0
    7.9476   -7.6331   -1.3331 C   0  0  0  0  0  0
   14.4576    8.0708   -8.8720 H   0  0  0  0  0  0
   15.3800    7.6462   -7.3903 H   0  0  0  0  0  0
   13.9685    8.7521   -7.2835 H   0  0  0  0  0  0
   13.7132    6.9115   -5.4730 H   0  0  0  0  0  0
   11.2459    3.7549   -3.1813 H   0  0  0  0  0  0
    9.5901    1.9455   -3.3810 H   0  0  0  0  0  0
   10.3961   -1.0641   -6.3739 H   0  0  0  0  0  0
    5.6030   -1.2714   -2.4947 H   0  0  0  0  0  0
   10.1851   -2.4479   -3.9874 H   0  0  0  0  0  0
    7.1442   -5.2971   -3.0012 H   0  0  0  0  0  0
    8.5660   -7.0527   -3.6267 H   0  0  0  0  0  0
   10.1780   -8.1045   -1.7803 H   0  0  0  0  0  0
    9.9526   -6.5173   -0.9700 H   0  0  0  0  0  0
    7.2186   -6.9689   -0.8459 H   0  0  0  0  0  0
    7.4440   -8.5562   -1.6561 H   0  0  0  0  0  0
  1  2  1  0  0  0
  1 29  1  0  0  0
  1 30  1  0  0  0
  1 31  1  0  0  0
  2  3  2  0  0  0
  2  4  1  0  0  0
  4  5  1  0  0  0
  4 32  1  0  0  0
  5  6  2  0  0  0
  5  9  1  0  0  0
  6  7  1  0  0  0
  7  8  2  0  0  0
  7 33  1  0  0  0
  8  9  1  0  0  0
  8 10  1  0  0  0
 10 11  1  0  0  0
 10 14  1  0  0  0
 11 12  2  0  0  0
 11 34  1  0  0  0
 12 13  1  0  0  0
 12 15  1  0  0  0
 13 14  2  0  0  0
 13 35  1  0  0  0
 15 16  2  0  0  0
 15 22  1  0  0  0
 16 17  1  0  0  0
 16 18  1  0  0  0
 18 19  2  0  0  0
 18 36  1  0  0  0
 19 20  1  0  0  0
 19 21  1  0  0  0
 21 22  2  0  0  0
 21 23  1  0  0  0
 22 37  1  0  0  0
 23 24  2  0  0  0
 23 25  1  0  0  0
 25 26  1  0  0  0
 25 38  1  0  0  0
 26 27  1  0  0  0
 26 28  1  0  0  0
 26 39  1  0  0  0
 27 28  1  0  0  0
 27 40  1  0  0  0
 27 41  1  0  0  0
 28 42  1  0  0  0
 28 43  1  0  0  0
M  END

$$$$
